<?xml version='1.0' encoding='utf-8'?>
<nodes>
    <node id="node_0_start" x="2028633140" y="1093131890" type="priority" />
    <node id="node_0_end" x="345374636.0" y="1093131134.0" type="priority" />
    <node id="node_100_start" x="-1929137360" y="1093094028" type="priority" />
    <node id="node_101_start" x="1760001617" y="1093103026" type="priority" />
    <node id="node_101_end" x="-353927604.0" y="1093102944.0" type="priority" />
    <node id="node_103_end" x="1873620021.0" y="1093093569.0" type="priority" />
    <node id="node_104_start" x="-1419265675" y="1093098734" type="priority" />
    <node id="node_104_end" x="1287729510.0" y="1093098718.0" type="priority" />
    <node id="node_105_start" x="2111405124" y="1093102861" type="priority" />
    <node id="node_106_start" x="1746439784" y="1093097986" type="priority" />
    <node id="node_106_end" x="-1746436538.0" y="1093097698.0" type="priority" />
    <node id="node_107_start" x="-186155450" y="1093102303" type="priority" />
    <node id="node_108_end" x="-2031649204.0" y="1093101452.0" type="priority" />
    <node id="node_111_end" x="526350500.0" y="1093093434.0" type="priority" />
    <node id="node_112_start" x="-1092125114" y="1093099789" type="priority" />
    <node id="node_113_start" x="166166086" y="1093102309" type="priority" />
    <node id="node_114_end" x="-98774418.0" y="1093099586.0" type="priority" />
    <node id="node_116_start" x="1809726772" y="1093094023" type="priority" />
    <node id="node_118_start" x="458588236" y="1093094104" type="priority" />
    <node id="node_119_start" x="-414348155" y="1093089596" type="priority" />
    <node id="node_119_end" x="1701144070.0" y="1093089520.0" type="priority" />
    <node id="node_12_end" x="-194544049.0" y="1093135462.0" type="priority" />
    <node id="node_120_start" x="-1286502906" y="1093090721" type="priority" />
    <node id="node_120_end" x="2084585438.0" y="1093090706.0" type="priority" />
    <node id="node_121_end" x="167047532.0" y="1093090159.0" type="priority" />
    <node id="node_122_start" x="333938248" y="1093093186" type="priority" />
    <node id="node_123_end" x="1652397331.0" y="1093088764.0" type="priority" />
    <node id="node_124_end" x="-2121370286.0" y="1093090089.0" type="priority" />
    <node id="node_125_start" x="-2072585676" y="1093078252" type="priority" />
    <node id="node_125_end" x="946477951.0" y="1093077779.0" type="priority" />
    <node id="node_126_start" x="980746265" y="1093084585" type="priority" />
    <node id="node_126_end" x="1945756320.0" y="1093084069.0" type="priority" />
    <node id="node_128_start" x="-1830600972" y="1093082135" type="priority" />
    <node id="node_128_end" x="651472946.0" y="1093082019.0" type="priority" />
    <node id="node_129_end" x="-1041793459.0" y="1093083090.0" type="priority" />
    <node id="node_131_end" x="-227745541.0" y="1093084566.0" type="priority" />
    <node id="node_132_end" x="1457518642.0" y="1093075744.0" type="priority" />
    <node id="node_133_start" x="-983629888" y="1093083327" type="priority" />
    <node id="node_134_start" x="1376194040" y="1093063198" type="priority" />
    <node id="node_134_end" x="1649577692.0" y="1093059689.0" type="priority" />
    <node id="node_135_start" x="174494078" y="1093063731" type="priority" />
    <node id="node_135_end" x="1502597222.0" y="1093063630.0" type="priority" />
    <node id="node_136_end" x="1337351913.0" y="1093063383.0" type="priority" />
    <node id="node_137_start" x="-302792835" y="1093067199" type="priority" />
    <node id="node_137_end" x="-658057001.0" y="1093067090.0" type="priority" />
    <node id="node_138_end" x="773521760.0" y="1093066990.0" type="priority" />
    <node id="node_140_start" x="-1823983344" y="1093051103" type="priority" />
    <node id="node_140_end" x="1026369846.0" y="1093051003.0" type="priority" />
    <node id="node_142_start" x="-533858368" y="1093058414" type="priority" />
    <node id="node_142_end" x="755475623.0" y="1093056032.0" type="priority" />
    <node id="node_143_start" x="-1224924557" y="1093058962" type="priority" />
    <node id="node_145_start" x="-149175931" y="1093051098" type="priority" />
    <node id="node_146_start" x="1820847048" y="1093051210" type="priority" />
    <node id="node_149_start" x="-1394114995" y="1093044697" type="priority" />
    <node id="node_149_end" x="954695240.0" y="1093044616.0" type="priority" />
    <node id="node_15_start" x="-1945766148" y="1093127094" type="priority" />
    <node id="node_15_end" x="1311211082.0" y="1093125765.0" type="priority" />
    <node id="node_150_start" x="-152601016" y="1093044071" type="priority" />
    <node id="node_150_end" x="-1998094783.0" y="1093043251.0" type="priority" />
    <node id="node_152_start" x="1088912971" y="1093043050" type="priority" />
    <node id="node_152_end" x="-657302228.0" y="1093042785.0" type="priority" />
    <node id="node_153_start" x="-1878389741" y="1093049155" type="priority" />
    <node id="node_153_end" x="317161018.0" y="1093044765.0" type="priority" />
    <node id="node_154_start" x="1223130700" y="1093044361" type="priority" />
    <node id="node_154_end" x="419736820.0" y="1093044258.0" type="priority" />
    <node id="node_158_end" x="-1930985904.0" y="1093049511.0" type="priority" />
    <node id="node_16_start" x="606568008" y="1093138256" type="priority" />
    <node id="node_16_end" x="-2079128454.0" y="1093138067.0" type="priority" />
    <node id="node_160_end" x="-480081110.0" y="1093038605.0" type="priority" />
    <node id="node_162_start" x="417824335" y="1093049380" type="priority" />
    <node id="node_163_start" x="1112095394" y="1093044758" type="priority" />
    <node id="node_163_end" x="307264770.0" y="1093044686.0" type="priority" />
    <node id="node_168_start" x="1836289089" y="1093043454" type="priority" />
    <node id="node_169_start" x="285703756" y="1093049762" type="priority" />
    <node id="node_17_start" x="546931352" y="1093132935" type="priority" />
    <node id="node_172_start" x="504069704" y="1093033308" type="priority" />
    <node id="node_174_end" x="-792624.0" y="1093030844.0" type="priority" />
    <node id="node_176_end" x="759114610.0" y="1093030721.0" type="priority" />
    <node id="node_177_end" x="585596496.0" y="1093033308.0" type="priority" />
    <node id="node_179_end" x="1455128120.0" y="1093037850.0" type="priority" />
    <node id="node_18_end" x="603718484.0" y="1093130215.0" type="priority" />
    <node id="node_180_end" x="1788313158.0" y="1093033859.0" type="priority" />
    <node id="node_182_end" x="-1159233974.0" y="1093029557.0" type="priority" />
    <node id="node_184_start" x="1659338312" y="1093036706" type="priority" />
    <node id="node_185_start" x="729513782" y="1093036706" type="priority" />
    <node id="node_186_start" x="1057718853" y="1093029624" type="priority" />
    <node id="node_186_end" x="-952664496.0" y="1093029557.0" type="priority" />
    <node id="node_188_start" x="407338059" y="1093029773" type="priority" />
    <node id="node_190_start" x="-1433435569" y="1093036988" type="priority" />
    <node id="node_192_start" x="537114196" y="1093034274" type="priority" />
    <node id="node_193_end" x="907639830.0" y="1093034390.0" type="priority" />
    <node id="node_194_start" x="1934064206" y="1093033555" type="priority" />
    <node id="node_197_end" x="185564741.0" y="1093030544.0" type="priority" />
    <node id="node_200_start" x="1235189322" y="1093022108" type="priority" />
    <node id="node_202_start" x="962821957" y="1093022110" type="priority" />
    <node id="node_203_end" x="-213942450.0" y="1093023574.0" type="priority" />
    <node id="node_204_end" x="1590393414.0" y="1093023576.0" type="priority" />
    <node id="node_206_start" x="1596423749" y="1093022401" type="priority" />
    <node id="node_207_end" x="672879562.0" y="1093023189.0" type="priority" />
    <node id="node_208_start" x="285167109" y="1092998552" type="priority" />
    <node id="node_208_end" x="-1021857566.0" y="1092997315.0" type="priority" />
    <node id="node_213_end" x="1690259919.0" y="1092985839.0" type="priority" />
    <node id="node_214_start" x="-219709880" y="1092997313" type="priority" />
    <node id="node_214_end" x="-1491373140.0" y="1092997244.0" type="priority" />
    <node id="node_217_start" x="-554351730" y="1092997758" type="priority" />
    <node id="node_219_start" x="784692946" y="1092998550" type="priority" />
    <node id="node_219_end" x="-2016436664.0" y="1092998082.0" type="priority" />
    <node id="node_221_start" x="1037155220" y="1092984661" type="priority" />
    <node id="node_221_end" x="1256685129.0" y="1092984568.0" type="priority" />
    <node id="node_222_end" x="-1066749353.0" y="1092983337.0" type="priority" />
    <node id="node_225_end" x="2097442123.0" y="1092984395.0" type="priority" />
    <node id="node_228_end" x="1701837758.0" y="1092980777.0" type="priority" />
    <node id="node_230_start" x="94666062" y="1092983346" type="priority" />
    <node id="node_231_start" x="2106162871" y="1092983763" type="priority" />
    <node id="node_232_end" x="241386173.0" y="1093114055.0" type="priority" />
    <node id="node_236_start" x="1071420834" y="1093082724" type="priority" />
    <node id="node_238_start" x="-1336404134" y="1093083086" type="priority" />
    <node id="node_238_end" x="-1140630423.0" y="1093082722.0" type="priority" />
    <node id="node_239_start" x="-1654587525" y="1093049371" type="priority" />
    <node id="node_239_end" x="-717554642.0" y="1093049150.0" type="priority" />
    <node id="node_24_end" x="1731354239.0" y="1093133681.0" type="priority" />
    <node id="node_240_start" x="-1578297480" y="1093093392" type="priority" />
    <node id="node_240_end" x="-1474040943.0" y="1093093182.0" type="priority" />
    <node id="node_241_end" x="1515134780.0" y="1093121410.0" type="priority" />
    <node id="node_244_start" x="-1634343052" y="1093090086" type="priority" />
    <node id="node_245_start" x="-1140464200" y="1093090088" type="priority" />
    <node id="node_25_start" x="854506666" y="1093128209" type="priority" />
    <node id="node_250_start" x="589059710" y="1093030845" type="priority" />
    <node id="node_250_end" x="1473039134.0" y="1093030721.0" type="priority" />
    <node id="node_253_start" x="1049115787" y="1093034390" type="priority" />
    <node id="node_253_end" x="-613104726.0" y="1093034273.0" type="priority" />
    <node id="node_257_start" x="-1247016661" y="1093140447" type="priority" />
    <node id="node_258_start" x="88514765" y="1093143120" type="priority" />
    <node id="node_260_start" x="-771600818" y="1093156863" type="priority" />
    <node id="node_260_end" x="151658737.0" y="1093154828.0" type="priority" />
    <node id="node_27_start" x="88046863" y="1093117164" type="priority" />
    <node id="node_27_end" x="-1223022144.0" y="1093115786.0" type="priority" />
    <node id="node_271_start" x="387673038" y="1093175797" type="priority" />
    <node id="node_274_end" x="550932686.0" y="1093137741.0" type="priority" />
    <node id="node_276_end" x="-1384321180.0" y="1093156626.0" type="priority" />
    <node id="node_278_start" x="-350795705" y="1093162754" type="priority" />
    <node id="node_280_end" x="-42321547.0" y="1093163912.0" type="priority" />
    <node id="node_282_end" x="-1908628073.0" y="1093167552.0" type="priority" />
    <node id="node_283_start" x="487471238" y="1093170335" type="priority" />
    <node id="node_286_end" x="2062286320.0" y="1093171446.0" type="priority" />
    <node id="node_287_start" x="-1767130742" y="1093176120" type="priority" />
    <node id="node_290_start" x="-487075594" y="1093153762" type="priority" />
    <node id="node_291_start" x="1934814636" y="1093154741" type="priority" />
    <node id="node_293_start" x="972054502" y="1093151136" type="priority" />
    <node id="node_295_end" x="466207008.0" y="1093149741.0" type="priority" />
    <node id="node_296_end" x="1372659708.0" y="1093147985.0" type="priority" />
    <node id="node_297_start" x="-487171228" y="1093155331" type="priority" />
    <node id="node_299_end" x="1003040340.0" y="1093149337.0" type="priority" />
    <node id="node_30_start" x="-1077119336" y="1093118927" type="priority" />
    <node id="node_30_end" x="-1796326559.0" y="1093118301.0" type="priority" />
    <node id="node_302_end" x="648592216.0" y="1093147712.0" type="priority" />
    <node id="node_303_start" x="-278478514" y="1093138675" type="priority" />
    <node id="node_308_end" x="-594318594.0" y="1093153226.0" type="priority" />
    <node id="node_310_start" x="1408745669" y="1093158035" type="priority" />
    <node id="node_311_start" x="1783635426" y="1093162209" type="priority" />
    <node id="node_312_end" x="896537690.0" y="1093163986.0" type="priority" />
    <node id="node_314_end" x="-232253526.0" y="1093167695.0" type="priority" />
    <node id="node_316_start" x="388652304" y="1093169891" type="priority" />
    <node id="node_317_end" x="249277970.0" y="1093171676.0" type="priority" />
    <node id="node_319_start" x="2123728566" y="1093136391" type="priority" />
    <node id="node_32_start" x="364490227" y="1093118128" type="priority" />
    <node id="node_321_start" x="-608949242" y="1092972476" type="priority" />
    <node id="node_321_end" x="-1428065020.0" y="1092972314.0" type="priority" />
    <node id="node_324_end" x="1217914176.0" y="1092972479.0" type="priority" />
    <node id="node_325_start" x="254522586" y="1092972316" type="priority" />
    <node id="node_329_start" x="1445027004" y="1092972983" type="priority" />
    <node id="node_33_end" x="876030010.0" y="1093119054.0" type="priority" />
    <node id="node_330_end" x="960038170.0" y="1092973792.0" type="priority" />
    <node id="node_331_start" x="-2026300734" y="1092974498" type="priority" />
    <node id="node_332_start" x="121101360" y="1092954936" type="priority" />
    <node id="node_332_end" x="13936183.0" y="1092953511.0" type="priority" />
    <node id="node_333_start" x="751347327" y="1092954936" type="priority" />
    <node id="node_333_end" x="1728684214.0" y="1092954510.0" type="priority" />
    <node id="node_338_start" x="-913869986" y="1092953510" type="priority" />
    <node id="node_339_start" x="1682874223" y="1092953854" type="priority" />
    <node id="node_34_start" x="-600508868" y="1093122681" type="priority" />
    <node id="node_340_end" x="1968022198.0" y="1092935672.0" type="priority" />
    <node id="node_341_start" x="-28728132" y="1092935670" type="priority" />
    <node id="node_341_end" x="-1346009917.0" y="1092935109.0" type="priority" />
    <node id="node_342_start" x="-1672258813" y="1092932367" type="priority" />
    <node id="node_343_end" x="1746337807.0" y="1092932715.0" type="priority" />
    <node id="node_345_start" x="1600624318" y="1092933482" type="priority" />
    <node id="node_347_start" x="-1744591932" y="1092932714" type="priority" />
    <node id="node_347_end" x="933296784.0" y="1092932367.0" type="priority" />
    <node id="node_35_end" x="-320373176.0" y="1093121101.0" type="priority" />
    <node id="node_351_end" x="-2026219352.0" y="1092921326.0" type="priority" />
    <node id="node_352_end" x="-893722865.0" y="1092919584.0" type="priority" />
    <node id="node_355_end" x="956192815.0" y="1092906308.0" type="priority" />
    <node id="node_356_start" x="807923396" y="1092920038" type="priority" />
    <node id="node_356_end" x="1145329366.0" y="1092919584.0" type="priority" />
    <node id="node_357_end" x="734556061.0" y="1092921326.0" type="priority" />
    <node id="node_358_end" x="-371347000.0" y="1092920586.0" type="priority" />
    <node id="node_361_start" x="453887740" y="1092904569" type="priority" />
    <node id="node_361_end" x="-1196043586.0" y="1092904394.0" type="priority" />
    <node id="node_364_end" x="131572914.0" y="1092905835.0" type="priority" />
    <node id="node_365_start" x="-1755273948" y="1092905308" type="priority" />
    <node id="node_366_end" x="-458830145.0" y="1092906189.0" type="priority" />
    <node id="node_370_start" x="602121404" y="1092904564" type="priority" />
    <node id="node_370_end" x="-801904883.0" y="1092904391.0" type="priority" />
    <node id="node_373_end" x="1800876560.0" y="1092897251.0" type="priority" />
    <node id="node_374_start" x="377281508" y="1092897101" type="priority" />
    <node id="node_375_end" x="-684405123.0" y="1092895411.0" type="priority" />
    <node id="node_376_start" x="95660222" y="1092896111" type="priority" />
    <node id="node_378_end" x="-298081094.0" y="1092896655.0" type="priority" />
    <node id="node_382_start" x="1619686105" y="1092895245" type="priority" />
    <node id="node_386_start" x="1076116161" y="1092895410" type="priority" />
    <node id="node_386_end" x="-1593439913.0" y="1092895244.0" type="priority" />
    <node id="node_387_end" x="1405050710.0" y="1092875321.0" type="priority" />
    <node id="node_388_start" x="-2025872201" y="1092875318" type="priority" />
    <node id="node_388_end" x="-119822652.0" y="1092874957.0" type="priority" />
    <node id="node_39_end" x="-1775404382.0" y="1093121030.0" type="priority" />
    <node id="node_392_end" x="-158358334.0" y="1092873167.0" type="priority" />
    <node id="node_393_start" x="738220818" y="1092873661" type="priority" />
    <node id="node_394_start" x="496215230" y="1092873166" type="priority" />
    <node id="node_394_end" x="586772343.0" y="1092872918.0" type="priority" />
    <node id="node_395_start" x="832061446" y="1092872919" type="priority" />
    <node id="node_398_end" x="2147198137.0" y="1092857796.0" type="priority" />
    <node id="node_4_end" x="-106463666.0" y="1093134790.0" type="priority" />
    <node id="node_400_start" x="1648600758" y="1092856131" type="priority" />
    <node id="node_401_start" x="-1228167998" y="1092856336" type="priority" />
    <node id="node_404_end" x="-151804741.0" y="1092857797.0" type="priority" />
    <node id="node_405_end" x="1481350337.0" y="1092857352.0" type="priority" />
    <node id="node_407_start" x="994814145" y="1092856808" type="priority" />
    <node id="node_41_end" x="761964252.0" y="1093124979.0" type="priority" />
    <node id="node_410_start" x="10614440" y="1092840933" type="priority" />
    <node id="node_410_end" x="-201543044.0" y="1092838895.0" type="priority" />
    <node id="node_412_start" x="718517432" y="1092839544" type="priority" />
    <node id="node_412_end" x="296461499.0" y="1092838892.0" type="priority" />
    <node id="node_416_start" x="-780723824" y="1092840928" type="priority" />
    <node id="node_416_end" x="1839441086.0" y="1092840383.0" type="priority" />
    <node id="node_418_start" x="-1299995975" y="1092827926" type="priority" />
    <node id="node_418_end" x="-2085380937.0" y="1092827529.0" type="priority" />
    <node id="node_419_start" x="-1290488902" y="1092827924" type="priority" />
    <node id="node_42_start" x="-1886442861" y="1093122675" type="priority" />
    <node id="node_420_start" x="1244350282" y="1092825454" type="priority" />
    <node id="node_420_end" x="1771359507.0" y="1092820911.0" type="priority" />
    <node id="node_421_end" x="-1462122956.0" y="1092825626.0" type="priority" />
    <node id="node_426_start" x="805815287" y="1092825627" type="priority" />
    <node id="node_426_end" x="251125782.0" y="1092825455.0" type="priority" />
    <node id="node_427_start" x="757834936" y="1092826493" type="priority" />
    <node id="node_432_end" x="1403561495.0" y="1092818843.0" type="priority" />
    <node id="node_436_end" x="1604945228.0" y="1092820808.0" type="priority" />
    <node id="node_438_end" x="28027584.0" y="1092820408.0" type="priority" />
    <node id="node_439_start" x="-1050434884" y="1092818836" type="priority" />
    <node id="node_440_start" x="1866179770" y="1092819285" type="priority" />
    <node id="node_441_start" x="-336386328" y="1092799859" type="priority" />
    <node id="node_443_start" x="-966547797" y="1092801263" type="priority" />
    <node id="node_443_end" x="1861367203.0" y="1092801062.0" type="priority" />
    <node id="node_444_end" x="-287071045.0" y="1092806972.0" type="priority" />
    <node id="node_445_end" x="-2123792212.0" y="1092797357.0" type="priority" />
    <node id="node_446_start" x="513516726" y="1092806979" type="priority" />
    <node id="node_447_start" x="-608927939" y="1092803607" type="priority" />
    <node id="node_447_end" x="-779758592.0" y="1092803483.0" type="priority" />
    <node id="node_448_end" x="1751160548.0" y="1092799260.0" type="priority" />
    <node id="node_449_end" x="-266491173.0" y="1092800033.0" type="priority" />
    <node id="node_451_end" x="-2100058957.0" y="1092804736.0" type="priority" />
    <node id="node_455_end" x="-2001492814.0" y="1092797145.0" type="priority" />
    <node id="node_456_end" x="-139223877.0" y="1092806553.0" type="priority" />
    <node id="node_458_start" x="-1562676534" y="1092804563" type="priority" />
    <node id="node_46_start" x="650503220" y="1093118117" type="priority" />
    <node id="node_46_end" x="416367108.0" y="1093117819.0" type="priority" />
    <node id="node_461_end" x="918790316.0" y="1092802894.0" type="priority" />
    <node id="node_464_start" x="961785022" y="1092805424" type="priority" />
    <node id="node_466_start" x="-2067026764" y="1092801970" type="priority" />
    <node id="node_47_start" x="179556942" y="1093123244" type="priority" />
    <node id="node_474_start" x="412503538" y="1092804731" type="priority" />
    <node id="node_474_end" x="1820040885.0" y="1092804561.0" type="priority" />
    <node id="node_475_start" x="-771509059" y="1092800031" type="priority" />
    <node id="node_475_end" x="340500670.0" y="1092799856.0" type="priority" />
    <node id="node_476_start" x="-2132564298" y="1092797358" type="priority" />
    <node id="node_476_end" x="1956357314.0" y="1092797145.0" type="priority" />
    <node id="node_478_start" x="-56594065" y="1092798513" type="priority" />
    <node id="node_479_start" x="-1519063372" y="1092974613" type="priority" />
    <node id="node_479_end" x="-228554892.0" y="1092974495.0" type="priority" />
    <node id="node_48_end" x="-1723628602.0" y="1093117697.0" type="priority" />
    <node id="node_480_start" x="693348630" y="1092974615" type="priority" />
    <node id="node_487_start" x="1364706034" y="1092906305" type="priority" />
    <node id="node_487_end" x="-1635876863.0" y="1092906184.0" type="priority" />
    <node id="node_488_start" x="500271438" y="1092897250" type="priority" />
    <node id="node_488_end" x="-185565300.0" y="1092897098.0" type="priority" />
    <node id="node_49_end" x="-553907304.0" y="1093117147.0" type="priority" />
    <node id="node_493_start" x="1422586511" y="1092856337" type="priority" />
    <node id="node_493_end" x="-1498174274.0" y="1092856131.0" type="priority" />
    <node id="node_496_start" x="521139726" y="1092820909" type="priority" />
    <node id="node_496_end" x="-105442735.0" y="1092820803.0" type="priority" />
    <node id="node_499_start" x="2095292604" y="1092803605" type="priority" />
    <node id="node_499_end" x="1718441554.0" y="1092803479.0" type="priority" />
    <node id="node_500_start" x="-876883355" y="1092801259" type="priority" />
    <node id="node_500_end" x="-767628392.0" y="1092801059.0" type="priority" />
    <node id="node_501_start" x="-1662021052" y="1092980635" type="priority" />
    <node id="node_504_end" x="120827065.0" y="1092786790.0" type="priority" />
    <node id="node_505_end" x="1407952063.0" y="1092792511.0" type="priority" />
    <node id="node_506_end" x="-503599933.0" y="1092794743.0" type="priority" />
    <node id="node_508_end" x="135946012.0" y="1092783928.0" type="priority" />
    <node id="node_509_start" x="1150526646" y="1092792511" type="priority" />
    <node id="node_509_end" x="-2016697158.0" y="1092792209.0" type="priority" />
    <node id="node_51_end" x="-844385785.0" y="1093116907.0" type="priority" />
    <node id="node_510_end" x="1153671864.0" y="1092794743.0" type="priority" />
    <node id="node_511_end" x="-333732671.0" y="1092792209.0" type="priority" />
    <node id="node_513_end" x="-1618762560.0" y="1092786784.0" type="priority" />
    <node id="node_519_end" x="-1073519427.0" y="1092794234.0" type="priority" />
    <node id="node_52_start" x="314410789" y="1093119486" type="priority" />
    <node id="node_520_end" x="-1289385218.0" y="1092786458.0" type="priority" />
    <node id="node_521_start" x="1058266673" y="1092784553" type="priority" />
    <node id="node_522_start" x="-1794923328" y="1092793506" type="priority" />
    <node id="node_523_start" x="-1370443482" y="1092781712" type="priority" />
    <node id="node_523_end" x="-1593923672.0" y="1092778313.0" type="priority" />
    <node id="node_524_start" x="-1882113182" y="1092783459" type="priority" />
    <node id="node_524_end" x="-2031658376.0" y="1092783244.0" type="priority" />
    <node id="node_525_end" x="-1229910039.0" y="1092783581.0" type="priority" />
    <node id="node_528_start" x="-1208416504" y="1092772048" type="priority" />
    <node id="node_529_start" x="-853826376" y="1092775493" type="priority" />
    <node id="node_529_end" x="254520041.0" y="1092775375.0" type="priority" />
    <node id="node_53_start" x="-1905847202" y="1093110228" type="priority" />
    <node id="node_53_end" x="-1183787509.0" y="1093110172.0" type="priority" />
    <node id="node_530_start" x="1397466296" y="1092782959" type="priority" />
    <node id="node_530_end" x="1637033699.0" y="1092782846.0" type="priority" />
    <node id="node_531_start" x="-54481931" y="1092776263" type="priority" />
    <node id="node_532_end" x="1721033286.0" y="1092782964.0" type="priority" />
    <node id="node_533_start" x="-1679744566" y="1092772303" type="priority" />
    <node id="node_533_end" x="421920801.0" y="1092772139.0" type="priority" />
    <node id="node_534_end" x="-265211523.0" y="1092775493.0" type="priority" />
    <node id="node_535_end" x="-786717510.0" y="1092777864.0" type="priority" />
    <node id="node_536_end" x="708165903.0" y="1092782850.0" type="priority" />
    <node id="node_537_end" x="-1778861575.0" y="1092771507.0" type="priority" />
    <node id="node_539_start" x="313855392" y="1092772139" type="priority" />
    <node id="node_539_end" x="-1154241346.0" y="1092772048.0" type="priority" />
    <node id="node_54_start" x="686236366" y="1093107409" type="priority" />
    <node id="node_54_end" x="-924352950.0" y="1093103042.0" type="priority" />
    <node id="node_540_start" x="627179354" y="1092775375" type="priority" />
    <node id="node_543_end" x="-2136234817.0" y="1092778214.0" type="priority" />
    <node id="node_545_end" x="640460990.0" y="1092782097.0" type="priority" />
    <node id="node_547_start" x="-937849515" y="1092778311" type="priority" />
    <node id="node_547_end" x="423864487.0" y="1092778211.0" type="priority" />
    <node id="node_55_end" x="-766935481.0" y="1093107478.0" type="priority" />
    <node id="node_554_start" x="1926013482" y="1092765161" type="priority" />
    <node id="node_554_end" x="1646384628.0" y="1092764963.0" type="priority" />
    <node id="node_555_start" x="-184310593" y="1092764158" type="priority" />
    <node id="node_555_end" x="-1164729152.0" y="1092763891.0" type="priority" />
    <node id="node_557_end" x="-177541667.0" y="1092762372.0" type="priority" />
    <node id="node_56_start" x="1713470532" y="1093107469" type="priority" />
    <node id="node_56_end" x="760507057.0" y="1093107400.0" type="priority" />
    <node id="node_560_start" x="-1294752578" y="1092762017" type="priority" />
    <node id="node_560_end" x="-860029445.0" y="1092759628.0" type="priority" />
    <node id="node_561_start" x="-1507591709" y="1092765226" type="priority" />
    <node id="node_564_end" x="1239436481.0" y="1092767327.0" type="priority" />
    <node id="node_566_end" x="521917428.0" y="1092767980.0" type="priority" />
    <node id="node_567_end" x="1692640437.0" y="1092768570.0" type="priority" />
    <node id="node_568_end" x="-1282615977.0" y="1092767862.0" type="priority" />
    <node id="node_569_end" x="-1901878086.0" y="1092767070.0" type="priority" />
    <node id="node_57_end" x="2085191242.0" y="1093108260.0" type="priority" />
    <node id="node_571_end" x="-2073844543.0" y="1092762005.0" type="priority" />
    <node id="node_574_start" x="120126212" y="1092764150" type="priority" />
    <node id="node_574_end" x="1301521594.0" y="1092763887.0" type="priority" />
    <node id="node_576_start" x="439351312" y="1092764959" type="priority" />
    <node id="node_58_start" x="380642928" y="1093113018" type="priority" />
    <node id="node_58_end" x="-612337098.0" y="1093112340.0" type="priority" />
    <node id="node_581_start" x="285199964" y="1092770282" type="priority" />
    <node id="node_582_end" x="-1523866436.0" y="1092761531.0" type="priority" />
    <node id="node_583_start" x="2074579406" y="1092752231" type="priority" />
    <node id="node_584_start" x="-232858739" y="1092755928" type="priority" />
    <node id="node_584_end" x="1293657537.0" y="1092755808.0" type="priority" />
    <node id="node_585_end" x="2070904102.0" y="1092754587.0" type="priority" />
    <node id="node_587_end" x="-871113424.0" y="1092757386.0" type="priority" />
    <node id="node_589_start" x="1032125414" y="1092757251" type="priority" />
    <node id="node_59_end" x="1907119238.0" y="1093107999.0" type="priority" />
    <node id="node_590_start" x="-1068700852" y="1092752914" type="priority" />
    <node id="node_592_end" x="1320897432.0" y="1092759368.0" type="priority" />
    <node id="node_593_start" x="-1476156232" y="1092759134" type="priority" />
    <node id="node_593_end" x="-85476742.0" y="1092758925.0" type="priority" />