<?xml version='1.0' encoding='utf-8'?>
<nodes>
    <node id="node_0_start" x="-2065203653" y="1093044065" type="priority" />
    <node id="node_1_start" x="527528580" y="1093147828" type="priority" />
    <node id="node_1_end" x="1600538484.0" y="1093148164.0" type="priority" />
    <node id="node_100_start" x="1433883741" y="1092696481" type="priority" />
    <node id="node_100_end" x="1387227759.0" y="1092696495.0" type="priority" />
    <node id="node_103_start" x="-2015249915" y="1092698362" type="priority" />
    <node id="node_104_start" x="-1495976681" y="1092707153" type="priority" />
    <node id="node_104_end" x="93403562.0" y="1092707870.0" type="priority" />
    <node id="node_105_start" x="43717332" y="1092706928" type="priority" />
    <node id="node_106_start" x="-604748357" y="1092713398" type="priority" />
    <node id="node_106_end" x="1921258279.0" y="1092715829.0" type="priority" />
    <node id="node_107_start" x="760759272" y="1092716505" type="priority" />
    <node id="node_107_end" x="-559329379.0" y="1092718706.0" type="priority" />
    <node id="node_108_start" x="-575593677" y="1092712808" type="priority" />
    <node id="node_109_start" x="2030490461" y="1092716434" type="priority" />
    <node id="node_109_end" x="-1749800137.0" y="1092716563.0" type="priority" />
    <node id="node_110_start" x="156454884" y="1092726308" type="priority" />
    <node id="node_110_end" x="1986639523.0" y="1092726455.0" type="priority" />
    <node id="node_111_start" x="1141815574" y="1092726650" type="priority" />
    <node id="node_112_start" x="-1404572665" y="1092722246" type="priority" />
    <node id="node_112_end" x="1422145050.0" y="1092722351.0" type="priority" />
    <node id="node_113_start" x="805345375" y="1092724685" type="priority" />
    <node id="node_113_end" x="-1345838495.0" y="1092724778.0" type="priority" />
    <node id="node_114_start" x="1687971312" y="1092722104" type="priority" />
    <node id="node_115_start" x="273508247" y="1092722770" type="priority" />
    <node id="node_115_end" x="-1782105108.0" y="1092724177.0" type="priority" />
    <node id="node_121_end" x="-569966076.0" y="1092739405.0" type="priority" />
    <node id="node_122_start" x="-1681971404" y="1092745696" type="priority" />
    <node id="node_123_start" x="-167456774" y="1092740261" type="priority" />
    <node id="node_123_end" x="1629431607.0" y="1092740387.0" type="priority" />
    <node id="node_124_start" x="-911399113" y="1092745577" type="priority" />
    <node id="node_125_end" x="-1661917383.0" y="1092747010.0" type="priority" />
    <node id="node_126_start" x="1007151005" y="1092745582" type="priority" />
    <node id="node_126_end" x="417933108.0" y="1092745699.0" type="priority" />
    <node id="node_128_start" x="1044326200" y="1092746948" type="priority" />
    <node id="node_128_end" x="-199940302.0" y="1092747214.0" type="priority" />
    <node id="node_131_end" x="-1139462344.0" y="1092748119.0" type="priority" />
    <node id="node_132_start" x="-1667636131" y="1092747356" type="priority" />
    <node id="node_132_end" x="665659186.0" y="1092747428.0" type="priority" />
    <node id="node_133_start" x="1389306680" y="1092748262" type="priority" />
    <node id="node_136_start" x="1165959984" y="1092740266" type="priority" />
    <node id="node_136_end" x="1772955446.0" y="1092740389.0" type="priority" />
    <node id="node_143_end" x="-942725326.0" y="1092747604.0" type="priority" />
    <node id="node_144_start" x="1891050804" y="1092744179" type="priority" />
    <node id="node_148_end" x="1650140981.0" y="1092744252.0" type="priority" />
    <node id="node_153_start" x="83437364" y="1092748125" type="priority" />
    <node id="node_153_end" x="1483940655.0" y="1092748265.0" type="priority" />
    <node id="node_154_start" x="-611843005" y="1092753204" type="priority" />
    <node id="node_154_end" x="-847886942.0" y="1092753488.0" type="priority" />
    <node id="node_156_start" x="1094264631" y="1092758693" type="priority" />
    <node id="node_156_end" x="-126043279.0" y="1092759001.0" type="priority" />
    <node id="node_157_end" x="286783542.0" y="1092754645.0" type="priority" />
    <node id="node_158_start" x="-1646193882" y="1092757556" type="priority" />
    <node id="node_158_end" x="-89315526.0" y="1092757849.0" type="priority" />
    <node id="node_159_start" x="-1828164845" y="1092753868" type="priority" />
    <node id="node_160_start" x="2035408745" y="1092756423" type="priority" />
    <node id="node_160_end" x="-979009740.0" y="1092756632.0" type="priority" />
    <node id="node_161_end" x="-900379253.0" y="1092752916.0" type="priority" />
    <node id="node_162_start" x="-986913437" y="1092755467" type="priority" />
    <node id="node_163_end" x="-1120004468.0" y="1092758208.0" type="priority" />
    <node id="node_167_start" x="1068246769" y="1092755464" type="priority" />
    <node id="node_168_start" x="-1759052378" y="1092754669" type="priority" />
    <node id="node_168_end" x="272703799.0" y="1092754946.0" type="priority" />
    <node id="node_169_start" x="18687796" y="1092754912" type="priority" />
    <node id="node_169_end" x="1880534814.0" y="1092755202.0" type="priority" />
    <node id="node_172_end" x="723533859.0" y="1092753737.0" type="priority" />
    <node id="node_173_start" x="411191017" y="1092759948" type="priority" />
    <node id="node_173_end" x="415540977.0" y="1092760066.0" type="priority" />
    <node id="node_176_start" x="-619108292" y="1092759074" type="priority" />
    <node id="node_177_start" x="-577005582" y="1092759955" type="priority" />
    <node id="node_177_end" x="-1664131.0" y="1092760069.0" type="priority" />
    <node id="node_178_start" x="1628307153" y="1092757575" type="priority" />
    <node id="node_178_end" x="-1418700341.0" y="1092757756.0" type="priority" />
    <node id="node_18_start" x="-1048092916" y="1093178239" type="priority" />
    <node id="node_18_end" x="631295686.0" y="1093178423.0" type="priority" />
    <node id="node_190_end" x="-594540950.0" y="1092752935.0" type="priority" />
    <node id="node_195_end" x="-1132908747.0" y="1092753153.0" type="priority" />
    <node id="node_197_start" x="-998937110" y="1092762194" type="priority" />
    <node id="node_198_start" x="1620025935" y="1092764259" type="priority" />
    <node id="node_2_end" x="-2030728256.0" y="1093148727.0" type="priority" />
    <node id="node_200_end" x="854444402.0" y="1092761177.0" type="priority" />
    <node id="node_206_start" x="-1784193095" y="1092765788" type="priority" />
    <node id="node_208_end" x="165559068.0" y="1092763392.0" type="priority" />
    <node id="node_21_start" x="-851537705" y="1093137833" type="priority" />
    <node id="node_211_end" x="-2046720316.0" y="1092767737.0" type="priority" />
    <node id="node_216_start" x="-399519141" y="1092772325" type="priority" />
    <node id="node_216_end" x="2038508576.0" y="1092772704.0" type="priority" />
    <node id="node_217_start" x="881138366" y="1092776371" type="priority" />
    <node id="node_217_end" x="10302133.0" y="1092777430.0" type="priority" />
    <node id="node_218_start" x="1776848214" y="1092773228" type="priority" />
    <node id="node_218_end" x="-108071202.0" y="1092773587.0" type="priority" />
    <node id="node_219_start" x="-63436422" y="1092775490" type="priority" />
    <node id="node_220_end" x="2080699345.0" y="1092772864.0" type="priority" />
    <node id="node_223_end" x="1839417373.0" y="1092771782.0" type="priority" />
    <node id="node_225_end" x="-45090536.0" y="1092775018.0" type="priority" />
    <node id="node_227_end" x="1235128086.0" y="1092771976.0" type="priority" />
    <node id="node_229_end" x="-1065992812.0" y="1092776370.0" type="priority" />
    <node id="node_23_start" x="-133147122" y="1093138541" type="priority" />
    <node id="node_23_end" x="30531793.0" y="1093138844.0" type="priority" />
    <node id="node_231_start" x="-758839094" y="1092777158" type="priority" />
    <node id="node_234_start" x="1970349110" y="1092771782" type="priority" />
    <node id="node_234_end" x="-1687082692.0" y="1092771976.0" type="priority" />
    <node id="node_235_end" x="1060663076.0" y="1092776526.0" type="priority" />
    <node id="node_236_start" x="1550433072" y="1092783642" type="priority" />
    <node id="node_236_end" x="1350865651.0" y="1092784243.0" type="priority" />
    <node id="node_237_start" x="-608829972" y="1092793631" type="priority" />
    <node id="node_237_end" x="140885710.0" y="1092793765.0" type="priority" />
    <node id="node_239_start" x="-516902651" y="1092793790" type="priority" />
    <node id="node_24_start" x="1713080130" y="1093137664" type="priority" />
    <node id="node_24_end" x="-716949231.0" y="1093137786.0" type="priority" />
    <node id="node_240_start" x="-150409064" y="1092783705" type="priority" />
    <node id="node_240_end" x="-1641746937.0" y="1092784126.0" type="priority" />
    <node id="node_241_start" x="1623778991" y="1092788396" type="priority" />
    <node id="node_241_end" x="1903218560.0" y="1092788663.0" type="priority" />
    <node id="node_242_start" x="-2067597721" y="1092791087" type="priority" />
    <node id="node_242_end" x="1764328780.0" y="1092791358.0" type="priority" />
    <node id="node_243_start" x="-618143808" y="1092786467" type="priority" />
    <node id="node_244_start" x="-1670375112" y="1092784611" type="priority" />
    <node id="node_244_end" x="1066300218.0" y="1092786143.0" type="priority" />
    <node id="node_247_end" x="68507050.0" y="1092787719.0" type="priority" />
    <node id="node_248_end" x="973024297.0" y="1092793202.0" type="priority" />
    <node id="node_249_end" x="-418789278.0" y="1092793498.0" type="priority" />
    <node id="node_25_start" x="418291290" y="1093137544" type="priority" />
    <node id="node_25_end" x="157365929.0" y="1093137614.0" type="priority" />
    <node id="node_250_start" x="2088917249" y="1092788400" type="priority" />
    <node id="node_250_end" x="1822234601.0" y="1092788665.0" type="priority" />
    <node id="node_252_start" x="-1292896561" y="1092788018" type="priority" />
    <node id="node_254_start" x="-272040712" y="1092782223" type="priority" />
    <node id="node_254_end" x="1915761376.0" y="1092782390.0" type="priority" />
    <node id="node_26_end" x="1872186432.0" y="1093154960.0" type="priority" />
    <node id="node_263_end" x="1321372846.0" y="1092793202.0" type="priority" />
    <node id="node_264_start" x="-16440912" y="1092782221" type="priority" />
    <node id="node_264_end" x="-1608866759.0" y="1092782386.0" type="priority" />
    <node id="node_267_start" x="-973049906" y="1092795290" type="priority" />
    <node id="node_269_end" x="709771880.0" y="1092798404.0" type="priority" />
    <node id="node_270_end" x="-928176324.0" y="1092794877.0" type="priority" />
    <node id="node_271_start" x="-1348798855" y="1092800415" type="priority" />
    <node id="node_271_end" x="393084524.0" y="1092800577.0" type="priority" />
    <node id="node_272_start" x="-40571526" y="1092805645" type="priority" />
    <node id="node_272_end" x="414000951.0" y="1092805723.0" type="priority" />
    <node id="node_273_start" x="-23856632" y="1092803274" type="priority" />
    <node id="node_274_start" x="961881658" y="1092795069" type="priority" />
    <node id="node_275_end" x="820324009.0" y="1092807389.0" type="priority" />
    <node id="node_277_end" x="1906012514.0" y="1092800775.0" type="priority" />
    <node id="node_278_start" x="1798250697" y="1092804605" type="priority" />
    <node id="node_278_end" x="-234925232.0" y="1092804766.0" type="priority" />
    <node id="node_28_start" x="1472934339" y="1093155694" type="priority" />
    <node id="node_280_start" x="309206214" y="1092801202" type="priority" />
    <node id="node_281_end" x="626006088.0" y="1092808219.0" type="priority" />
    <node id="node_285_start" x="316133454" y="1092804457" type="priority" />
    <node id="node_285_end" x="76470677.0" y="1092804603.0" type="priority" />
    <node id="node_286_end" x="-492759237.0" y="1092798787.0" type="priority" />
    <node id="node_289_end" x="1947132669.0" y="1092801880.0" type="priority" />
    <node id="node_29_start" x="340880571" y="1093157647" type="priority" />
    <node id="node_292_start" x="1221632230" y="1092804762" type="priority" />
    <node id="node_293_start" x="-2085188108" y="1092800895" type="priority" />
    <node id="node_3_end" x="1388082876.0" y="1093138545.0" type="priority" />
    <node id="node_30_end" x="-1608197353.0" y="1093162471.0" type="priority" />
    <node id="node_301_end" x="-1159399830.0" y="1092802059.0" type="priority" />
    <node id="node_303_start" x="-123655887" y="1092800581" type="priority" />
    <node id="node_303_end" x="-164103925.0" y="1092800777.0" type="priority" />
    <node id="node_304_start" x="1557757286" y="1092803034" type="priority" />
    <node id="node_305_start" x="-543348937" y="1092795069" type="priority" />
    <node id="node_305_end" x="-95296354.0" y="1092795290.0" type="priority" />
    <node id="node_306_start" x="1781344054" y="1092811117" type="priority" />
    <node id="node_306_end" x="-1628625095.0" y="1092811345.0" type="priority" />
    <node id="node_307_end" x="-633526476.0" y="1092814723.0" type="priority" />
    <node id="node_308_start" x="1737303864" y="1092808384" type="priority" />
    <node id="node_310_start" x="-1538971866" y="1092814961" type="priority" />
    <node id="node_313_end" x="2030577114.0" y="1092819306.0" type="priority" />
    <node id="node_314_end" x="59057974.0" y="1092819165.0" type="priority" />
    <node id="node_315_end" x="1845694885.0" y="1092820673.0" type="priority" />
    <node id="node_317_start" x="515188522" y="1092808224" type="priority" />
    <node id="node_317_end" x="1637164854.0" y="1092808386.0" type="priority" />
    <node id="node_318_start" x="-354868651" y="1092832675" type="priority" />
    <node id="node_318_end" x="-1996468836.0" y="1092837727.0" type="priority" />
    <node id="node_319_start" x="1055783670" y="1092830179" type="priority" />
    <node id="node_319_end" x="804891982.0" y="1092830314.0" type="priority" />
    <node id="node_32_end" x="942983602.0" y="1093166204.0" type="priority" />
    <node id="node_320_end" x="1857870933.0" y="1092822551.0" type="priority" />
    <node id="node_321_start" x="-1564447697" y="1092832649" type="priority" />
    <node id="node_323_start" x="664086321" y="1092827454" type="priority" />
    <node id="node_324_start" x="-2067986692" y="1092830996" type="priority" />
    <node id="node_324_end" x="-1965584550.0" y="1092831429.0" type="priority" />
    <node id="node_325_start" x="611064437" y="1092830969" type="priority" />
    <node id="node_326_end" x="-2011962660.0" y="1092825952.0" type="priority" />
    <node id="node_328_start" x="-1590176744" y="1092831562" type="priority" />
    <node id="node_330_end" x="-94100300.0" y="1092822793.0" type="priority" />
    <node id="node_331_end" x="-364042448.0" y="1092826222.0" type="priority" />
    <node id="node_335_end" x="-1929082904.0" y="1092827578.0" type="priority" />
    <node id="node_339_start" x="1502422835" y="1092820407" type="priority" />
    <node id="node_343_start" x="1648622530" y="1092840189" type="priority" />
    <node id="node_343_end" x="-628756262.0" y="1092840216.0" type="priority" />
    <node id="node_344_start" x="1016198718" y="1092838542" type="priority" />
    <node id="node_344_end" x="-468769721.0" y="1092838567.0" type="priority" />
    <node id="node_345_start" x="-340555373" y="1092839843" type="priority" />
    <node id="node_345_end" x="593632770.0" y="1092839974.0" type="priority" />
    <node id="node_346_start" x="1645953642" y="1092840926" type="priority" />
    <node id="node_347_end" x="-991067892.0" y="1092839201.0" type="priority" />
    <node id="node_348_end" x="1267540282.0" y="1092848989.0" type="priority" />
    <node id="node_35_start" x="-861033275" y="1093163400" type="priority" />
    <node id="node_352_start" x="-102421703" y="1092840811" type="priority" />
    <node id="node_354_start" x="1949242762" y="1092837858" type="priority" />
    <node id="node_357_end" x="-881786245.0" y="1092839208.0" type="priority" />
    <node id="node_36_start" x="466608563" y="1093167262" type="priority" />
    <node id="node_361_end" x="1231252141.0" y="1092839528.0" type="priority" />
    <node id="node_362_start" x="-1563089102" y="1092851797" type="priority" />
    <node id="node_362_end" x="634201143.0" y="1092851927.0" type="priority" />
    <node id="node_363_end" x="1621991856.0" y="1092856074.0" type="priority" />
    <node id="node_364_end" x="402468154.0" y="1092856952.0" type="priority" />
    <node id="node_365_start" x="-442685647" y="1092849203" type="priority" />
    <node id="node_365_end" x="-1675286722.0" y="1092851691.0" type="priority" />
    <node id="node_366_end" x="283975983.0" y="1092849094.0" type="priority" />
    <node id="node_368_start" x="-523949264" y="1092857174" type="priority" />
    <node id="node_368_end" x="-1237377033.0" y="1092857580.0" type="priority" />
    <node id="node_37_end" x="-1506057139.0" y="1093169881.0" type="priority" />
    <node id="node_371_start" x="474017626" y="1092857168" type="priority" />
    <node id="node_371_end" x="1026893108.0" y="1092857580.0" type="priority" />
    <node id="node_373_end" x="-1295873080.0" y="1092860912.0" type="priority" />
    <node id="node_375_start" x="-1155748526" y="1092857059" type="priority" />
    <node id="node_379_start" x="351611196" y="1092856072" type="priority" />
    <node id="node_379_end" x="-1767659926.0" y="1092856444.0" type="priority" />
    <node id="node_383_end" x="1974561184.0" y="1092861018.0" type="priority" />
    <node id="node_384_end" x="-863673516.0" y="1092861118.0" type="priority" />
    <node id="node_386_start" x="1176105548" y="1092874213" type="priority" />
    <node id="node_386_end" x="36735236.0" y="1092874317.0" type="priority" />
    <node id="node_387_start" x="156493284" y="1092880650" type="priority" />
    <node id="node_387_end" x="1745382104.0" y="1092880943.0" type="priority" />
    <node id="node_388_end" x="-810706606.0" y="1092873583.0" type="priority" />
    <node id="node_389_start" x="-1291868085" y="1092875415" type="priority" />
    <node id="node_390_start" x="1780035667" y="1092873580" type="priority" />
    <node id="node_391_end" x="-134278340.0" y="1092874420.0" type="priority" />
    <node id="node_393_end" x="-1490551493.0" y="1092881028.0" type="priority" />
    <node id="node_395_start" x="1931190911" y="1092881343" type="priority" />
    <node id="node_398_end" x="1442654008.0" y="1092873781.0" type="priority" />
    <node id="node_4_end" x="-1918159880.0" y="1093138846.0" type="priority" />
    <node id="node_40_start" x="-1742934442" y="1093171164" type="priority" />
    <node id="node_402_start" x="-847311151" y="1092874827" type="priority" />
    <node id="node_405_end" x="1418535994.0" y="1092900944.0" type="priority" />
    <node id="node_406_start" x="1187709723" y="1092896723" type="priority" />
    <node id="node_407_end" x="2136241945.0" y="1092895168.0" type="priority" />
    <node id="node_409_start" x="-1778575556" y="1092896537" type="priority" />
    <node id="node_41_end" x="-1299948675.0" y="1093175376.0" type="priority" />
    <node id="node_412_end" x="-2108872909.0" y="1092895479.0" type="priority" />
    <node id="node_414_start" x="602663274" y="1092905021" type="priority" />
    <node id="node_414_end" x="-1608703705.0" y="1092905510.0" type="priority" />
    <node id="node_416_start" x="-603642055" y="1092906371" type="priority" />
    <node id="node_417_end" x="355806002.0" y="1092908869.0" type="priority" />
    <node id="node_418_end" x="1555374902.0" y="1092905397.0" type="priority" />
    <node id="node_419_start" x="1361389363" y="1092908993" type="priority" />
    <node id="node_419_end" x="29697333.0" y="1092909537.0" type="priority" />
    <node id="node_420_start" x="473768752" y="1092902567" type="priority" />
    <node id="node_420_end" x="1985292093.0" y="1092902658.0" type="priority" />
    <node id="node_421_start" x="1266493500" y="1092905610" type="priority" />
    <node id="node_421_end" x="989144354.0" y="1092905871.0" type="priority" />
    <node id="node_422_start" x="-224057546" y="1092909986" type="priority" />
    <node id="node_422_end" x="1980807086.0" y="1092915065.0" type="priority" />
    <node id="node_423_end" x="1135945527.0" y="1092909724.0" type="priority" />
    <node id="node_425_start" x="-1804785867" y="1092901104" type="priority" />
    <node id="node_427_start" x="-1751308492" y="1092909841" type="priority" />
    <node id="node_428_start" x="748494648" y="1092902887" type="priority" />
    <node id="node_436_start" x="2136332730" y="1092906186" type="priority" />
    <node id="node_438_end" x="1241967176.0" y="1092915182.0" type="priority" />
    <node id="node_439_start" x="-1434141948" y="1092918615" type="priority" />
    <node id="node_439_end" x="-1226641326.0" y="1092918717.0" type="priority" />
    <node id="node_440_start" x="-1557045288" y="1092918039" type="priority" />
    <node id="node_440_end" x="-1321561940.0" y="1092918143.0" type="priority" />
    <node id="node_441_start" x="1878462018" y="1092921408" type="priority" />
    <node id="node_441_end" x="-1717162367.0" y="1092921688.0" type="priority" />
    <node id="node_442_end" x="1798577337.0" y="1092922041.0" type="priority" />
    <node id="node_443_start" x="-2131110717" y="1092919661" type="priority" />
    <node id="node_445_start" x="165790378" y="1092918872" type="priority" />
    <node id="node_446_start" x="1156671908" y="1092917936" type="priority" />
    <node id="node_449_end" x="-1104657464.0" y="1092915356.0" type="priority" />
    <node id="node_453_start" x="-817027273" y="1092935188" type="priority" />
    <node id="node_455_start" x="-1308207786" y="1092934740" type="priority" />
    <node id="node_455_end" x="786793306.0" y="1092934884.0" type="priority" />
    <node id="node_456_end" x="1789078788.0" y="1092935368.0" type="priority" />
    <node id="node_457_end" x="-362522125.0" y="1092935568.0" type="priority" />
    <node id="node_458_start" x="-1838718104" y="1092933042" type="priority" />
    <node id="node_458_end" x="425118392.0" y="1092934559.0" type="priority" />
    <node id="node_46_start" x="1232854144" y="1093137485" type="priority" />
    <node id="node_460_end" x="918366007.0" y="1092933401.0" type="priority" />
    <node id="node_461_start" x="116558758" y="1092924500" type="priority" />
    <node id="node_468_end" x="-1940582838.0" y="1092953526.0" type="priority" />
    <node id="node_471_start" x="-812437237" y="1092954650" type="priority" />
    <node id="node_472_start" x="1447632434" y="1092953526" type="priority" />
    <node id="node_472_end" x="377282228.0" y="1092953600.0" type="priority" />
    <node id="node_473_start" x="-1795463907" y="1092953915" type="priority" />
    <node id="node_473_end" x="84888970.0" y="1092954063.0" type="priority" />
    <node id="node_475_start" x="2045915304" y="1092954222" type="priority" />
    <node id="node_475_end" x="1140921948.0" y="1092954651.0" type="priority" />
    <node id="node_476_end" x="-443734215.0" y="1092953736.0" type="priority" />
    <node id="node_478_end" x="-1293049642.0" y="1092965536.0" type="priority" />
    <node id="node_479_end" x="875037149.0" y="1092954162.0" type="priority" />
    <node id="node_484_start" x="-1137666047" y="1092967743" type="priority" />
    <node id="node_484_end" x="1218987422.0" y="1092969144.0" type="priority" />
    <node id="node_485_start" x="1372845055" y="1092973659" type="priority" />
    <node id="node_485_end" x="674083448.0" y="1092974307.0" type="priority" />
    <node id="node_486_end" x="1093762997.0" y="1092965716.0" type="priority" />
    <node id="node_487_start" x="646302043" y="1092966674" type="priority" />
    <node id="node_487_end" x="421729661.0" y="1092967607.0" type="priority" />
    <node id="node_488_start" x="-1213656934" y="1092977312" type="priority" />
    <node id="node_488_end" x="-639509919.0" y="1092978768.0" type="priority" />
    <node id="node_489_start" x="-1273406887" y="1092973955" type="priority" />
    <node id="node_489_end" x="2085877643.0" y="1092974312.0" type="priority" />
    <node id="node_490_end" x="-1624852332.0" y="1092969324.0" type="priority" />
    <node id="node_492_start" x="443566093" y="1092972778" type="priority" />
    <node id="node_492_end" x="-653135527.0" y="1092972826.0" type="priority" />
    <node id="node_493_start" x="-1477431854" y="1092965868" type="priority" />
    <node id="node_493_end" x="-2031042881.0" y="1092966293.0" type="priority" />
    <node id="node_494_end" x="-2001443084.0" y="1092969429.0" type="priority" />
    <node id="node_495_end" x="118131082.0" y="1092973382.0" type="priority" />
    <node id="node_497_end" x="1766322358.0" y="1092972784.0" type="priority" />
    <node id="node_498_end" x="1588017789.0" y="1092973522.0" type="priority" />
    <node id="node_5_end" x="2087175776.0" y="1093140670.0" type="priority" />
    <node id="node_501_end" x="-970179482.0" y="1092973097.0" type="priority" />
    <node id="node_502_end" x="34949477.0" y="1092977148.0" type="priority" />
    <node id="node_512_start" x="326899107" y="1092986550" type="priority" />
    <node id="node_512_end" x="1309348011.0" y="1092987529.0" type="priority" />
    <node id="node_513_end" x="-1959458117.0" y="1092978948.0" type="priority" />
    <node id="node_514_end" x="1844395998.0" y="1092983265.0" type="priority" />
    <node id="node_515_start" x="361637135" y="1092979576" type="priority" />
    <node id="node_516_start" x="358573527" y="1092988625" type="priority" />
    <node id="node_516_end" x="1334198541.0" y="1092989019.0" type="priority" />
    <node id="node_518_start" x="2038501540" y="1092984249" type="priority" />
    <node id="node_519_start" x="-83206384" y="1092986094" type="priority" />
    <node id="node_519_end" x="-105737690.0" y="1092986409.0" type="priority" />
    <node id="node_521_end" x="-323115256.0" y="1092993819.0" type="priority" />
    <node id="node_522_start" x="52163594" y="1092983252" type="priority" />
    <node id="node_522_end" x="1937319349.0" y="1092983512.0" type="priority" />
    <node id="node_523_start" x="521697803" y="1092983868" type="priority" />
    <node id="node_525_end" x="-545227890.0" y="1092979007.0" type="priority" />
    <node id="node_526_end" x="182926412.0" y="1092983572.0" type="priority" />
    <node id="node_527_start" x="-1277263274" y="1092983989" type="priority" />
    <node id="node_527_end" x="1516619547.0" y="1092984240.0" type="priority" />
    <node id="node_529_start" x="868821845" y="1092979311" type="priority" />
    <node id="node_529_end" x="-1925106148.0" y="1092979492.0" type="priority" />
    <node id="node_53_end" x="-1101343386.0" y="1093147668.0" type="priority" />
    <node id="node_530_start" x="-703644795" y="1092983738" type="priority" />
    <node id="node_531_start" x="1269920470" y="1092985447" type="priority" />
    <node id="node_531_end" x="-637271326.0" y="1092985857.0" type="priority" />
    <node id="node_541_start" x="-1739764698" y="1092996150" type="priority" />
    <node id="node_541_end" x="-1696204698.0" y="1092996263.0" type="priority" />
    <node id="node_543_start" x="-299030727" y="1092998771" type="priority" />
    <node id="node_543_end" x="-1487067337.0" y="1092998947.0" type="priority" />
    <node id="node_544_start" x="1369253689" y="1092998774" type="priority" />
    <node id="node_544_end" x="1676486449.0" y="1092998948.0" type="priority" />
    <node id="node_545_end" x="-145639246.0" y="1092994007.0" type="priority" />
    <node id="node_546_end" x="641403733.0" y="1092996377.0" type="priority" />
    <node id="node_547_end" x="79043003.0" y="1092997434.0" type="priority" />
    <node id="node_55_end" x="1312618534.0" y="1093154745.0" type="priority" />
    <node id="node_550_end" x="-413376090.0" y="1092996464.0" type="priority" />
    <node id="node_557_end" x="-886358583.0" y="1092997699.0" type="priority" />
    <node id="node_558_start" x="1421567825" y="1093022857" type="priority" />
    <node id="node_56_end" x="421123060.0" y="1093156277.0" type="priority" />
    <node id="node_561_start" x="1415197981" y="1093029679" type="priority" />
    <node id="node_561_end" x="963234826.0" y="1093030601.0" type="priority" />
    <node id="node_562_start" x="-54876236" y="1093023175" type="priority" />
    <node id="node_563_end" x="-289717594.0" y="1093029731.0" type="priority" />
    <node id="node_566_start" x="-1194968550" y="1093022233" type="priority" />
    <node id="node_567_end" x="-1585503436.0" y="1093022478.0" type="priority" />
    <node id="node_573_start" x="337444081" y="1093039757" type="priority" />
    <node id="node_573_end" x="220150132.0" y="1093039824.0" type="priority" />
    <node id="node_574_end" x="-496953074.0" y="1093033253.0" type="priority" />
    <node id="node_575_start" x="555051476" y="1093033845" type="priority" />
    <node id="node_576_start" x="1640741952" y="1093041232" type="priority" />
    <node id="node_576_end" x="368958735.0" y="1093042715.0" type="priority" />
    <node id="node_577_start" x="-977355349" y="1093038223" type="priority" />
    <node id="node_578_start" x="2051291726" y="1093042861" type="priority" />
    <node id="node_579_end" x="-553980745.0" y="1093034364.0" type="priority" />
    <node id="node_58_end" x="260568642.0" y="1093158037.0" type="priority" />
    <node id="node_580_start" x="-600418700" y="1093040195" type="priority" />
    <node id="node_580_end" x="2095677381.0" y="1093040225.0" type="priority" />